# generated using pymatgen
data_GaAs
_symmetry_space_group_name_H-M   F-43m
_cell_length_a   5.75018263
_cell_length_b   5.75018263
_cell_length_c   5.75018263
_cell_angle_alpha   90.00000000
_cell_angle_beta   90.00000000
_cell_angle_gamma   90.00000000
_symmetry_Int_Tables_number   216
_chemical_formula_structural   GaAs
_chemical_formula_sum   'Ga4 As4'
_cell_volume   190.12749058
_cell_formula_units_Z   4
loop_
 _symmetry_equiv_pos_site_id
 _symmetry_equiv_pos_as_xyz
  1  'x, y, z'
  2  '-z, -y, x'
  3  '-x, y, -z'
  4  'z, -y, -x'
  5  'x, -y, -z'
  6  '-z, y, -x'
  7  '-x, -y, z'
  8  'z, y, x'
  9  'y, -z, -x'
  10  '-y, -x, z'
  11  'y, z, x'
  12  '-y, x, -z'
  13  '-y, z, -x'
  14  'y, x, z'
  15  '-y, -z, x'
  16  'y, -x, -z'
  17  '-z, x, -y'
  18  '-x, -z, y'
  19  'z, -x, -y'
  20  'x, z, y'
  21  'z, x, y'
  22  'x, -z, -y'
  23  '-z, -x, y'
  24  '-x, z, -y'
  25  'x+1/2, y+1/2, z'
  26  '-z+1/2, -y+1/2, x'
  27  '-x+1/2, y+1/2, -z'
  28  'z+1/2, -y+1/2, -x'
  29  'x+1/2, -y+1/2, -z'
  30  '-z+1/2, y+1/2, -x'
  31  '-x+1/2, -y+1/2, z'
  32  'z+1/2, y+1/2, x'
  33  'y+1/2, -z+1/2, -x'
  34  '-y+1/2, -x+1/2, z'
  35  'y+1/2, z+1/2, x'
  36  '-y+1/2, x+1/2, -z'
  37  '-y+1/2, z+1/2, -x'
  38  'y+1/2, x+1/2, z'
  39  '-y+1/2, -z+1/2, x'
  40  'y+1/2, -x+1/2, -z'
  41  '-z+1/2, x+1/2, -y'
  42  '-x+1/2, -z+1/2, y'
  43  'z+1/2, -x+1/2, -y'
  44  'x+1/2, z+1/2, y'
  45  'z+1/2, x+1/2, y'
  46  'x+1/2, -z+1/2, -y'
  47  '-z+1/2, -x+1/2, y'
  48  '-x+1/2, z+1/2, -y'
  49  'x+1/2, y, z+1/2'
  50  '-z+1/2, -y, x+1/2'
  51  '-x+1/2, y, -z+1/2'
  52  'z+1/2, -y, -x+1/2'
  53  'x+1/2, -y, -z+1/2'
  54  '-z+1/2, y, -x+1/2'
  55  '-x+1/2, -y, z+1/2'
  56  'z+1/2, y, x+1/2'
  57  'y+1/2, -z, -x+1/2'
  58  '-y+1/2, -x, z+1/2'
  59  'y+1/2, z, x+1/2'
  60  '-y+1/2, x, -z+1/2'
  61  '-y+1/2, z, -x+1/2'
  62  'y+1/2, x, z+1/2'
  63  '-y+1/2, -z, x+1/2'
  64  'y+1/2, -x, -z+1/2'
  65  '-z+1/2, x, -y+1/2'
  66  '-x+1/2, -z, y+1/2'
  67  'z+1/2, -x, -y+1/2'
  68  'x+1/2, z, y+1/2'
  69  'z+1/2, x, y+1/2'
  70  'x+1/2, -z, -y+1/2'
  71  '-z+1/2, -x, y+1/2'
  72  '-x+1/2, z, -y+1/2'
  73  'x, y+1/2, z+1/2'
  74  '-z, -y+1/2, x+1/2'
  75  '-x, y+1/2, -z+1/2'
  76  'z, -y+1/2, -x+1/2'
  77  'x, -y+1/2, -z+1/2'
  78  '-z, y+1/2, -x+1/2'
  79  '-x, -y+1/2, z+1/2'
  80  'z, y+1/2, x+1/2'
  81  'y, -z+1/2, -x+1/2'
  82  '-y, -x+1/2, z+1/2'
  83  'y, z+1/2, x+1/2'
  84  '-y, x+1/2, -z+1/2'
  85  '-y, z+1/2, -x+1/2'
  86  'y, x+1/2, z+1/2'
  87  '-y, -z+1/2, x+1/2'
  88  'y, -x+1/2, -z+1/2'
  89  '-z, x+1/2, -y+1/2'
  90  '-x, -z+1/2, y+1/2'
  91  'z, -x+1/2, -y+1/2'
  92  'x, z+1/2, y+1/2'
  93  'z, x+1/2, y+1/2'
  94  'x, -z+1/2, -y+1/2'
  95  '-z, -x+1/2, y+1/2'
  96  '-x, z+1/2, -y+1/2'
loop_
 _atom_site_type_symbol
 _atom_site_label
 _atom_site_symmetry_multiplicity
 _atom_site_fract_x
 _atom_site_fract_y
 _atom_site_fract_z
 _atom_site_occupancy
  Ga  Ga1  4  0.000000  0.000000  0.000000  1
  As  As2  4  0.250000  0.250000  0.750000  1
